
**** 11/04/24 21:05:06 ****** PSpice Lite (October 2012) ****** ID# 10813 ****

 ** Profile: "SCHEMATIC1-Analiza_DC"  [ c:\users\andrei ciuhureanu\desktop\proiect 1(cef 2)\proiectare\schema_bloc-pspicefiles\schema


 ****     CIRCUIT DESCRIPTION


******************************************************************************




** Creating circuit file "Analiza_DC.cir" 
** WARNING: THIS AUTOMATICALLY GENERATED FILE MAY BE OVERWRITTEN BY SUBSEQUENT SIMULATIONS

*Libraries: 
* Profile Libraries :
* Local Libraries :
.LIB "c:/users/andrei ciuhureanu/desktop/lib_modelepspice_anexa_1/modele_a1_lib/bc807-25.lib" 
.LIB "c:/users/andrei ciuhureanu/desktop/lib_modelepspice_anexa_1/modele_a1_lib/bc817-25.lib" 
.LIB "c:/users/andrei ciuhureanu/desktop/lib_modelepspice_anexa_1/modele_a1_lib/bc846b.lib" 
.LIB "c:/users/andrei ciuhureanu/desktop/lib_modelepspice_anexa_1/modele_a1_lib/bc856b.lib" 
.LIB "c:/users/andrei ciuhureanu/desktop/lib_modelepspice_anexa_1/modele_a1_lib/bzx84c2v7.lib" 
.LIB "c:/users/andrei ciuhureanu/desktop/lib_modelepspice_anexa_1/modele_a1_lib/bzx84c5v1.lib" 
.LIB "c:/users/andrei ciuhureanu/desktop/lib_modelepspice_anexa_1/modele_a1_lib/bzx84c5v6.lib" 
.LIB "c:/users/andrei ciuhureanu/desktop/lib_modelepspice_anexa_1/modele_a1_lib/bzx84c6v2.lib" 
.LIB "c:/users/andrei ciuhureanu/desktop/lib_modelepspice_anexa_1/modele_a1_lib/bzx84c6v8.lib" 
.LIB "c:/users/andrei ciuhureanu/desktop/lib_modelepspice_anexa_1/modele_a1_lib/bzx84c8v2.lib" 
.LIB "c:/users/andrei ciuhureanu/desktop/lib_modelepspice_anexa_1/modele_a1_lib/bzx84c10.lib" 
.LIB "c:/users/andrei ciuhureanu/desktop/lib_modelepspice_anexa_1/modele_a1_lib/irfr120npbf.lib" 
.LIB "c:/users/andrei ciuhureanu/desktop/lib_modelepspice_anexa_1/modele_a1_lib/mjd31cg.lib" 
.LIB "c:/users/andrei ciuhureanu/desktop/lib_modelepspice_anexa_1/modele_a1_lib/mjd32cg.lib" 
.LIB "c:/users/andrei ciuhureanu/desktop/lib_modelepspice_anexa_1/modele_a1_lib/mmbfj177lt1g.lib" 
.LIB "c:/users/andrei ciuhureanu/desktop/lib_modelepspice_anexa_1/modele_a1_lib/mmbfj309lt1g.lib" 
.LIB "c:/users/andrei ciuhureanu/desktop/lib_modelepspice_anexa_1/modele_a1_lib/1n4148.lib" 
* From [PSPICE NETLIST] section of C:\Users\Andrei Ciuhureanu\AppData\Roaming\SPB_Data\cdssetup\OrCAD_PSpice/16.6.0/PSpice.ini file:
.lib "nomd.lib" 

*Analysis directives: 
.TRAN  0 5ms 0 0.001ms 
.OPTIONS ADVCONV
.PROBE64 V(alias(*)) I(alias(*)) W(alias(*)) D(alias(*)) NOISE(alias(*)) 
.INC "..\SCHEMATIC1.net" 



**** INCLUDING SCHEMATIC1.net ****
* source SCHEMA_BLOC
V_V1         VIN 0  AC 540m
+SIN 0 540m 1k 0 0 0
R_R1         0 VIN  220k TC=0,0 
Q_Q1         N00223 VIN N00500 QBC846B 
Q_Q3         N00223 N00316 N15428 QBC856B 
Q_Q4         N00316 N00316 N15404 QBC856B 
R_R2         N15428 VDD  220 TC=0,0 
R_R3         N15404 VDD  220 TC=0,0 
Q_Q2         N00316 N02160 N00500 QBC846B 
Q_Q5         N00500 N01385 N00580 QBC846B 
R_R4         VSS N00580  470 TC=0,0 
R_R5         N01385 0  2.2k TC=0,0 
Q_Q7         N01272 N00223 N11121 QBC856B 
C_C1         N00223 N01272  1n  TC=0,0 
R_R6         VSS N01577  330 TC=0,0 
Q_Q6         N14490 N01385 N01577 QBC846B 
R_R8         N02160 VOUT  8.2k TC=0,0 
R_R9         0 N02160  910 TC=0,0 
R_R10         N023821 VOUT  22 TC=0,0 
R_R11         N054491 N023821  22 TC=0,0 
X_U2         N07242 VSS 1N4148 
X_U1         N01385 N07242 1N4148 
R_R7         N11121 VDD  330 TC=0,0 
C_C2         N11121 VDD  1u  TC=0,0 
X_U3         N01272 N16020 1N4148 
X_U4         N16020 N14490 1N4148 
V_Vdd         VDD 0 8Vdc
V_Vss         0 VSS 8Vdc
R_R12         N356941 N054491  22 TC=0,0 
R_R13         0 N356941  22 TC=0,0 
Q_Q8         VDD N01272 VOUT QBC846B 
Q_Q9         VSS N14490 VOUT QBC856B 
R_R14         N523431 0  22 TC=0,0 

**** RESUMING Analiza_DC.cir ****
.END

ERROR(ORPSIM-15141): Less than 2 connections at node N523431.
